Circuit: * C:\Users\Krishna Srikar\Desktop\EE2133\LTSpice\Lab Exercise - 3\1.asc

Direct Newton iteration for .op point succeeded.

Date: Tue Nov 19 19:16:03 2019
Total elapsed time: 0.069 seconds.

tnom = 27
temp = 27
method = trap
totiter = 7
traniter = 0
tranpoints = 0
accept = 0
rejected = 0
matrix size = 7
fillins = 0
solver = Normal
Matrix Compiler1:      17 opcodes
Matrix Compiler2: 521 bytes object code size
