Circuit: * C:\Users\Krishna Srikar\Desktop\EE2133\LTSpice\Lab Exercise - 3\2.asc

Direct Newton iteration for .op point succeeded.

Date: Tue Nov 19 20:46:08 2019
Total elapsed time: 0.031 seconds.

tnom = 27
temp = 27
method = trap
totiter = 6
traniter = 0
tranpoints = 0
accept = 0
rejected = 0
matrix size = 10
fillins = 1
solver = Normal
Matrix Compiler1:      30 opcodes
Matrix Compiler2: 742 bytes object code size
