Circuit: * C:\Users\Krishna Srikar\Desktop\EE2133\LTSpice\Lab Exercise - 3\3.asc

WARNING: Node N002 is floating.


Date: Tue Nov 19 20:11:50 2019
Total elapsed time: 0.400 seconds.

tnom = 27
temp = 27
method = trap
totiter = 20024
traniter = 0
tranpoints = 0
accept = 0
rejected = 0
matrix size = 6
fillins = 0
solver = Normal
Matrix Compiler1: 164 bytes object code size  0.1/0.1/[0.1]
Matrix Compiler2: 414 bytes object code size  0.1/0.1/[0.1]

